/*--------------------------------*- C++ -*----------------------------------*\
| =========                 |                                                 |
| \\      /  F ield         | OpenFOAM: The Open Source CFD Toolbox           |
|  \\    /   O peration     | Version:  2312                                  |
|   \\  /    A nd           | Website:  www.openfoam.com                      |
|    \\/     M anipulation  |                                                 |
\*---------------------------------------------------------------------------*/
FoamFile
{
    version     2.0;
    format      ascii;
    arch        "LSB;label=32;scalar=64";
    class       polyBoundaryMesh;
    location    "constant/polyMesh";
    object      boundary;
}
// * * * * * * * * * * * * * * * * * * * * * * * * * * * * * * * * * * * * * //

8
(
    down
    {
        type            symmetry;
        inGroups        1(symmetry);
        nFaces          1260;
        startFace       236689;
    }
    right
    {
        type            patch;
        nFaces          0;
        startFace       237949;
    }
    up
    {
        type            symmetry;
        inGroups        1(symmetry);
        nFaces          0;
        startFace       237949;
    }
    left
    {
        type            patch;
        nFaces          588;
        startFace       237949;
    }
    cylinder
    {
        type            wall;
        inGroups        1(wall);
        nFaces          784;
        startFace       238537;
    }
    frontAndBack
    {
        type            symmetry;
        inGroups        1(symmetry);
        nFaces          11676;
        startFace       239321;
    }
    procBoundary0to1
    {
        type            processor;
        inGroups        1(processor);
        nFaces          620;
        startFace       250997;
        matchTolerance  0.0001;
        transform       unknown;
        myProcNo        0;
        neighbProcNo    1;
    }
    procBoundary0to2
    {
        type            processor;
        inGroups        1(processor);
        nFaces          2086;
        startFace       251617;
        matchTolerance  0.0001;
        transform       unknown;
        myProcNo        0;
        neighbProcNo    2;
    }
)

// ************************************************************************* //
