/*--------------------------------*- C++ -*----------------------------------*\
| =========                 |                                                 |
| \\      /  F ield         | OpenFOAM: The Open Source CFD Toolbox           |
|  \\    /   O peration     | Version:  v2312                                 |
|   \\  /    A nd           | Website:  www.openfoam.com                      |
|    \\/     M anipulation  |                                                 |
\*---------------------------------------------------------------------------*/
FoamFile
{
    version     2.0;
    format      ascii;
    class       volScalarField;
    object      nut;
}
// * * * * * * * * * * * * * * * * * * * * * * * * * * * * * * * * * * * * * //

dimensions      [0 2 -1 0 0 0 0];

internalField   uniform 1.0e-05;

boundaryField
{
    down
    {
        type            symmetryPlane;
    }

    right
    {
        type            calculated;
        value           uniform 0;
    }

    up
    {
        type            symmetryPlane;
    }

    left
    {
        type            calculated;
        value           $internalField;
    }

    cylinder
    {
        type            nutUSpaldingWallFunction; //Change this to wall-resolved instead of modeled
        value           $internalField;
    }

    defaultFaces
    {
        type            empty;
    }
}

// ************************************************************************* //
